Version 4.1
SHEET 1 880 680
WIRE 0 0 0 -16
WIRE 0 96 0 80
FLAG 0 176 0
FLAG 0 -16 0
SYMBOL voltage 0 80 R0
WINDOW 123 0 0 Left 0
WINDOW 39 0 0 Left 0
SYMATTR InstName V1
SYMATTR Value PULSE(0 5 0 0.1 0.0001 1)
SYMBOL res -16 -16 R0
SYMATTR InstName R1
SYMATTR Value 100
TEXT -32 200 Left 2 !.tran 10
