Version 4.1
SHEET 1 880 680
SYMBOL pnp 208 176 R270
SYMATTR InstName Q1
