.subckt divider n1 n2 n3
r1 n1 n2 100
c1 n1 n3 1u
.ends
